37
Energy =
Fe   -0.4684750    0.3104560   -0.1850580 
C    -1.7818980    1.3656800    0.1347660 
O    -2.6697640    2.0917530    0.3580540 
P    -1.6378320   -0.7584300   -1.7376190 
C    -2.4410130   -2.0227270   -0.7422810 
C    -2.0400680   -1.9849700    0.5726080 
N    -1.0589480   -1.1368770    1.0085380 
C    -0.9654440   -0.7338780    2.4128340 
C     0.3797500   -0.0125150    2.5641410 
N     0.5440510    0.8324630    1.3895140 
C     1.3967910    1.8683160    1.3263120 
C     1.6079720    2.5903200    0.1564800 
P     0.6190810    1.9732570   -1.1905460 
H    -0.1186960    3.0544220   -1.7622990 
H     1.4564830    1.7506940   -2.3283860 
H     2.2590250    3.4671920    0.1201860 
H     1.9452020    2.1414700    2.2448320 
H     0.4138840    0.5716020    3.5053250 
H     1.1902130   -0.7756790    2.6252620 
H    -1.0294390   -1.6074670    3.0929280 
H    -1.7901850   -0.0387140    2.6756200 
H    -2.4794860   -2.6776540    1.3107560 
H    -3.1364170   -2.7766410   -1.1215590 
H    -2.6551240   -0.1370120   -2.5176620 
H    -0.9651110   -1.4186920   -2.8109950 
O     0.9977570   -1.2133820   -0.5361370 
C     2.4041170   -1.1653690   -0.1702260 
C     3.1901310   -0.7218150   -1.3961250 
H     2.8994200    0.2955070   -1.6992590 
H     4.2692830   -0.7109000   -1.1664410 
H     3.0130580   -1.4117990   -2.2395930 
C     2.8167200   -2.5459020    0.3391360 
H     3.8768070   -2.5424160    0.6465290 
H     2.6805470   -3.3071840   -0.4490460 
H     2.2107280   -2.8383000    1.2156240 
H     2.5246200   -0.4159530    0.6335110 
H     0.4747880   -1.6356600    0.2110800 

